__TEMP__/v1/PMU/v1.0/others/Paper_Nodos_Debiles/ieee13_dyn_out.txt
ANDES 1.9.3
Copyright (C) 2015-2022 Hantao Cui

ANDES comes with ABSOLUTELY NO WARRANTY
Case file: ieee13_dyn.xlsx
Report time: 12/28/2025 03:37:10 PM

Power flow converged in 3 iterations.
Flat-start: No

Statistics:
Buses                             13
Generators                        13
Committed Gens                    13
Loads                             13
Shunts                             0
Lines                             12
Transformers                       0
Areas                              0

EXTENDED SUMMARY:
                              P (pu)            Q (pu)

Generation                    1.2569          0.085756
Load                            1.25             0.125

BUS DATA:
                            Bus Name            Vm(pu)          Va(rad.)

1                                650                 1        3.7541e-16
2                                632              1.02         -0.039857
3                                633              1.02         -0.042325
4                                634              1.02         -0.044381
5                                645              1.02         -0.042324
6                                646              1.02         -0.042509
7                                671              1.02         -0.045641
8                                680              1.02         -0.045736
9                                684              1.02         -0.045862
10                               611              1.02         -0.045976
11                               652              1.02         -0.045976
12                               692              1.02         -0.045767
13                               675              1.02         -0.045928

LINE DATA:
                           Line Name     Fr. Bus (idx)      To Bus (idx)       P From (pu)       Q From (pu)         P To (pu)         Q To (pu)

1                                  1                 1                 2            1.2069          -0.72553           -1.2006           0.78688
2                                  2                 2                 3           0.20008         -0.021396          -0.20003          0.018615
3                                  3                 2                 5           0.20005         -0.021393              -0.2          0.018612
4                                  4                 5                 6              0.15          -0.01908             -0.15           0.01092
5                                  5                 3                 4           0.15003         -0.017304             -0.15            0.0127
6                                  6                 2                 7           0.75045         -0.074491          -0.75002          0.075556
7                                  7                 7                 8              0.15         -0.020724             -0.15          0.009276
8                                  8                 7                 9           0.35001         -0.040693             -0.35          0.029308
9                                  9                 7                12               0.2         -0.025719              -0.2          0.014282
10                                10                 9                10              0.15          -0.02236             -0.15         0.0076401
11                                11                 9                11              0.15          -0.02236             -0.15         0.0076401
12                                12                12                13              0.15         -0.024813             -0.15         0.0051874

OTHER ALGEBRAIC VARIABLES:


q PV 2                        0.6746
q PV 3                      0.006311
q PV 4                        0.0277
q PV 5                      0.004532
q PV 6                       0.02592
q PV 7                     -0.006581
q PV 8                      0.024276
q PV 9                     -0.010412
q PV 10                      0.02264
q PV 11                      0.02264
q PV 12                    -0.005531
q PV 13                     0.020187
q Slack 1                   -0.72053
p Slack 1                     1.2569
